Version 4
SHEET 1 880 680
WIRE -224 128 -272 128
WIRE -80 128 -144 128
WIRE 0 128 -80 128
WIRE 112 128 0 128
WIRE 512 128 368 128
WIRE 608 128 512 128
WIRE 784 128 688 128
WIRE 0 160 0 128
WIRE 512 160 512 128
WIRE 784 160 784 128
WIRE -272 176 -272 128
WIRE 0 288 0 224
WIRE 512 288 512 224
WIRE 240 432 240 224
FLAG 0 288 0
FLAG 512 288 0
FLAG 240 432 0
FLAG 784 160 0
FLAG -80 128 Vin
FLAG 784 128 Vout
FLAG -272 176 0
SYMBOL cap -16 160 R0
SYMATTR InstName C1
SYMATTR Value 10 uF
SYMBOL cap 496 160 R0
SYMATTR InstName C2
SYMATTR Value 10 uF
SYMBOL voltage -128 128 R90
WINDOW 123 0 0 Left 0
WINDOW 39 0 0 Left 0
SYMATTR InstName V1
SYMATTR Value 5
SYMBOL res 704 112 R90
WINDOW 0 0 56 VBottom 2
WINDOW 3 32 56 VTop 2
SYMATTR InstName R1
SYMATTR Value 33
SYMBOL PowerProducts\\LT1117-3.3 240 128 R0
SYMATTR InstName U1
TEXT -248 568 Left 2 !.tran 1
